<?xml version="1.0" encoding="UTF-8"?>

<!-- generated on 2024-03-14 01:37:01.811927 by osmWebWizard.py v1_19_0+0000-baa66a0f364
<configuration>
    <net-file value="C:\Users\adarshdon\Sumo\2024-03-14-01-36-28\osm.net.xml.gz"/>
    <output-trip-file value="C:\Users\adarshdon\Sumo\2024-03-14-01-36-28\osm.passenger.trips.xml"/>
    <route-file value="C:\Users\adarshdon\Sumo\2024-03-14-01-36-28\osm.passenger.rou.xml"/>
    <prefix value="veh"/>
    <trip-attributes value="departLane=&quot;best&quot;"/>
    <fringe-start-attributes value="departSpeed=&quot;max&quot;"/>
    <vehicle-class value="passenger"/>
    <lanes value="True"/>
    <fringe-factor value="5"/>
    <allow-fringe.min-length value="1000.0"/>
    <via-edge-types value="highway.motorway,highway.motorway_link,highway.trunk_link,highway.primary_link,highway.secondary_link,highway.tertiary_link"/>
    <min-distance value="300.0"/>
    <min-distance.fringe value="10.0"/>
    <remove-loops value="True"/>
    <validate value="True"/>
    <insertion-density value="12.0"/>
</configuration>
-->

<!-- generated on 2024-03-14 01:36:56 by Eclipse SUMO duarouter Version 1.19.0
<configuration xmlns:xsi="http://www.w3.org/2001/XMLSchema-instance" xsi:noNamespaceSchemaLocation="http://sumo.dlr.de/xsd/duarouterConfiguration.xsd">

    <input>
        <net-file value="C:\Users\adarshdon\Sumo\2024-03-14-01-36-28\osm.net.xml.gz"/>
        <route-files value="C:\Users\adarshdon\Sumo\2024-03-14-01-36-28\osm.passenger.trips.xml"/>
    </input>

    <output>
        <output-file value="C:\Users\adarshdon\Sumo\2024-03-14-01-36-28\osm.passenger.trips.xml.tmp"/>
        <alternatives-output value="NUL"/>
        <write-trips value="true"/>
    </output>

    <processing>
        <remove-loops value="true"/>
    </processing>

    <time>
        <begin value="0.0"/>
        <end value="3600.0"/>
    </time>

    <report>
        <no-warnings value="true"/>
        <ignore-errors value="true"/>
        <no-step-log value="true"/>
    </report>

</configuration>
-->

<routes xmlns:xsi="http://www.w3.org/2001/XMLSchema-instance" xsi:noNamespaceSchemaLocation="http://sumo.dlr.de/xsd/routes_file.xsd">
    <vType id="veh_passenger" vClass="passenger"/>
    <trip id="veh0" type="veh_passenger" depart="0.00" departLane="best" from="-371867571#3" to="-1075960367"/>
    <trip id="veh1" type="veh_passenger" depart="1.39" departLane="best" from="77967013#0" to="-717046708#1"/>
    <trip id="veh2" type="veh_passenger" depart="2.78" departLane="best" from="-716525254" to="685106016#3"/>
    <trip id="veh3" type="veh_passenger" depart="4.17" departLane="best" from="78164611#2" to="-155443731#0"/>
    <trip id="veh4" type="veh_passenger" depart="5.56" departLane="best" from="-993806089#2" to="1076002359#3"/>
    <trip id="veh5" type="veh_passenger" depart="6.95" departLane="best" from="-716525254" to="1115514311#5"/>
    <trip id="veh6" type="veh_passenger" depart="8.33" departLane="best" from="-1075962956" to="708713879#0"/>
    <trip id="veh7" type="veh_passenger" depart="9.72" departLane="best" from="602915252#0" to="1202732345#2"/>
    <trip id="veh8" type="veh_passenger" depart="11.11" departLane="best" from="-717029725#1" to="251324935#12"/>
    <trip id="veh9" type="veh_passenger" depart="12.50" departLane="best" from="77966567#4" to="1042112405#3"/>
    <trip id="veh10" type="veh_passenger" depart="13.89" departLane="best" from="77966562#0" to="-707860018#5"/>
    <trip id="veh11" type="veh_passenger" depart="15.28" departLane="best" from="78164662#2" to="-681780541#0"/>
    <trip id="veh12" type="veh_passenger" depart="16.67" departLane="best" from="-78175833#1" to="78164634#0"/>
    <trip id="veh13" type="veh_passenger" depart="18.06" departLane="best" from="77967830#0" to="292622187#9"/>
    <trip id="veh14" type="veh_passenger" depart="19.45" departLane="best" from="164040613#9" to="715749284"/>
    <trip id="veh15" type="veh_passenger" depart="20.84" departLane="best" from="-1187069835" to="-78175987#6"/>
    <trip id="veh16" type="veh_passenger" depart="22.23" departLane="best" from="-78175780#2" to="1205201347#3"/>
    <trip id="veh17" type="veh_passenger" depart="23.61" departLane="best" from="77967014#2" to="370164613#6"/>
    <trip id="veh18" type="veh_passenger" depart="25.00" departLane="best" from="-77975280#2" to="-171505936#1"/>
    <trip id="veh19" type="veh_passenger" depart="26.39" departLane="best" from="708414239#4" to="1121177136"/>
    <trip id="veh20" type="veh_passenger" depart="27.78" departLane="best" from="-718992239#0" to="-77967797#2"/>
    <trip id="veh21" type="veh_passenger" depart="29.17" departLane="best" from="1236239387" to="-721511487#0"/>
    <trip id="veh22" type="veh_passenger" depart="30.56" departLane="best" from="-292622188#1" to="-77967017#0"/>
    <trip id="veh23" type="veh_passenger" depart="31.95" departLane="best" from="371865896#3" to="-78164736#2"/>
    <trip id="veh24" type="veh_passenger" depart="33.34" departLane="best" from="-78175751#2" to="-715638054#5"/>
    <trip id="veh25" type="veh_passenger" depart="34.73" departLane="best" from="77966996" to="78175779#5"/>
    <trip id="veh26" type="veh_passenger" depart="36.12" departLane="best" from="423062093#1" to="31756736#4"/>
    <trip id="veh27" type="veh_passenger" depart="37.50" departLane="best" from="-706305195#1" to="-715749282#1"/>
    <trip id="veh28" type="veh_passenger" depart="38.89" departLane="best" from="993808256#1" to="379021079#5"/>
    <trip id="veh29" type="veh_passenger" depart="40.28" departLane="best" from="1206106707#1" to="706568047#1"/>
    <trip id="veh30" type="veh_passenger" depart="41.67" departLane="best" from="77967797#0" to="77759986#7"/>
    <trip id="veh31" type="veh_passenger" depart="43.06" departLane="best" from="-718992239#4" to="1076038222#2"/>
    <trip id="veh32" type="veh_passenger" depart="44.45" departLane="best" from="-77975435#3" to="-77966999#2"/>
    <trip id="veh33" type="veh_passenger" depart="45.84" departLane="best" from="-715638054#7" to="78175795#1"/>
    <trip id="veh34" type="veh_passenger" depart="47.23" departLane="best" from="78164553" to="77975436#1"/>
    <trip id="veh35" type="veh_passenger" depart="48.62" departLane="best" from="661722872#3" to="-78175830"/>
    <trip id="veh36" type="veh_passenger" depart="50.01" departLane="best" from="78164717#8" to="1075454487"/>
    <trip id="veh37" type="veh_passenger" depart="51.40" departLane="best" from="77966989#2" to="-77966521#5"/>
    <trip id="veh38" type="veh_passenger" depart="52.78" departLane="best" from="-1236233295" to="-77966988#2"/>
    <trip id="veh39" type="veh_passenger" depart="54.17" departLane="best" from="244052111#1" to="-78164669#2"/>
    <trip id="veh41" type="veh_passenger" depart="56.95" departLane="best" from="211849222#2" to="1121179243"/>
    <trip id="veh42" type="veh_passenger" depart="58.34" departLane="best" from="370164614#2" to="-370164619#0"/>
    <trip id="veh43" type="veh_passenger" depart="59.73" departLane="best" from="77882055#7" to="-993806093#1"/>
    <trip id="veh44" type="veh_passenger" depart="61.12" departLane="best" from="-1187562634#1" to="-78175792"/>
    <trip id="veh45" type="veh_passenger" depart="62.51" departLane="best" from="993808287#0" to="1184964588#1"/>
    <trip id="veh46" type="veh_passenger" depart="63.90" departLane="best" from="78175986#1" to="-77968349#0"/>
    <trip id="veh47" type="veh_passenger" depart="65.29" departLane="best" from="706282597#1" to="-1187555762"/>
    <trip id="veh48" type="veh_passenger" depart="66.68" departLane="best" from="77966995" to="387905502"/>
    <trip id="veh49" type="veh_passenger" depart="68.06" departLane="best" from="-370164616#3" to="993813842"/>
    <trip id="veh50" type="veh_passenger" depart="69.45" departLane="best" from="1075080449#2" to="-78175829#12"/>
    <trip id="veh51" type="veh_passenger" depart="70.84" departLane="best" from="78164549#3" to="-77966989#0"/>
    <trip id="veh52" type="veh_passenger" depart="72.23" departLane="best" from="1102536815#9" to="-707631408#3"/>
    <trip id="veh53" type="veh_passenger" depart="73.62" departLane="best" from="-78164717#0" to="-77975436#4"/>
    <trip id="veh54" type="veh_passenger" depart="75.01" departLane="best" from="-77967855#4" to="-379021079#0"/>
    <trip id="veh55" type="veh_passenger" depart="76.40" departLane="best" departSpeed="max" from="31756736#0" to="-681780287#2"/>
    <trip id="veh56" type="veh_passenger" depart="77.79" departLane="best" from="775979376#0" to="1187564051"/>
    <trip id="veh57" type="veh_passenger" depart="79.18" departLane="best" from="77759986#4" to="1185911799#0"/>
    <trip id="veh58" type="veh_passenger" depart="80.57" departLane="best" from="-1038630345" to="-78164573#2"/>
    <trip id="veh59" type="veh_passenger" depart="81.95" departLane="best" from="-1075457095" to="78175752#9"/>
    <trip id="veh60" type="veh_passenger" depart="83.34" departLane="best" from="77968349#0" to="-1185930727#0"/>
    <trip id="veh61" type="veh_passenger" depart="84.73" departLane="best" from="78164565#2" to="-78175805#0"/>
    <trip id="veh62" type="veh_passenger" depart="86.12" departLane="best" from="1238501016#1" to="1090706675"/>
    <trip id="veh63" type="veh_passenger" depart="87.51" departLane="best" from="-1205196207#2" to="775979375"/>
    <trip id="veh64" type="veh_passenger" depart="88.90" departLane="best" from="77629881#1-AddedOffRampEdge" to="-379021079#0"/>
    <trip id="veh65" type="veh_passenger" depart="90.29" departLane="best" from="1075649231#2" to="1205196208#2"/>
    <trip id="veh66" type="veh_passenger" depart="91.68" departLane="best" from="77966989#2" to="77975455#2-AddedOnRampEdge"/>
    <trip id="veh67" type="veh_passenger" depart="93.07" departLane="best" from="-993806092#0" to="-715749282#1"/>
    <trip id="veh68" type="veh_passenger" depart="94.46" departLane="best" from="-709631157#0" to="-77975315#3"/>
    <trip id="veh69" type="veh_passenger" depart="95.85" departLane="best" from="993808282#1" to="-602915253#7"/>
    <trip id="veh70" type="veh_passenger" depart="97.23" departLane="best" from="-993814692" to="1121179258"/>
    <trip id="veh71" type="veh_passenger" depart="98.62" departLane="best" from="-371865895#0" to="-717447903#0"/>
    <trip id="veh72" type="veh_passenger" depart="100.01" departLane="best" from="-78164634#0" to="251324935#1"/>
    <trip id="veh73" type="veh_passenger" depart="101.40" departLane="best" from="-719110258" to="-717029726#2"/>
    <trip id="veh74" type="veh_passenger" depart="102.79" departLane="best" from="1205196208#4" to="371865895#1"/>
    <trip id="veh75" type="veh_passenger" depart="104.18" departLane="best" from="-718992239#4" to="78164693#2"/>
    <trip id="veh76" type="veh_passenger" depart="105.57" departLane="best" from="77968348#2" to="-1205196209#0"/>
    <trip id="veh77" type="veh_passenger" depart="106.96" departLane="best" from="-752113584#2" to="-681780544#2"/>
    <trip id="veh78" type="veh_passenger" depart="108.35" departLane="best" from="-715749287" to="387905505#5"/>
    <trip id="veh79" type="veh_passenger" depart="109.74" departLane="best" from="78175779#0" to="-1238501016#2"/>
    <trip id="veh80" type="veh_passenger" depart="111.13" departLane="best" from="1075649231#2" to="77882002#0"/>
    <trip id="veh81" type="veh_passenger" depart="112.51" departLane="best" from="164040613#9" to="-708414241"/>
    <trip id="veh82" type="veh_passenger" depart="113.90" departLane="best" from="-251325052#2" to="993808280#0"/>
    <trip id="veh83" type="veh_passenger" depart="115.29" departLane="best" from="-993806093#0" to="1075648328#2"/>
    <trip id="veh84" type="veh_passenger" depart="116.68" departLane="best" from="715638054#9" to="-681780548#7"/>
    <trip id="veh85" type="veh_passenger" depart="118.07" departLane="best" from="993806091" to="-251325073#2"/>
    <trip id="veh86" type="veh_passenger" depart="119.46" departLane="best" from="-78175910#2" to="-78164666#1"/>
    <trip id="veh87" type="veh_passenger" depart="120.85" departLane="best" from="-77975280#2" to="-77966525#1"/>
    <trip id="veh88" type="veh_passenger" depart="122.24" departLane="best" from="-708414239#6" to="1072540000#3"/>
    <trip id="veh89" type="veh_passenger" depart="123.63" departLane="best" from="-993806089#2" to="-77967017#2"/>
    <trip id="veh90" type="veh_passenger" depart="125.02" departLane="best" from="77966525#2" to="78175740#0"/>
    <trip id="veh91" type="veh_passenger" depart="126.40" departLane="best" from="1040476030#1" to="-77968350#1"/>
    <trip id="veh92" type="veh_passenger" depart="127.79" departLane="best" from="1205196209#1" to="77968337#1"/>
    <trip id="veh93" type="veh_passenger" depart="129.18" departLane="best" from="993814693" to="77967019#2"/>
    <trip id="veh95" type="veh_passenger" depart="131.96" departLane="best" from="77967839#1" to="-705088060"/>
    <trip id="veh96" type="veh_passenger" depart="133.35" departLane="best" from="1076478850#2" to="715749288"/>
    <trip id="veh97" type="veh_passenger" depart="134.74" departLane="best" from="-78175845#1" to="-1185930727#2"/>
    <trip id="veh98" type="veh_passenger" depart="136.13" departLane="best" from="78175780#4" to="993806093#1"/>
    <trip id="veh99" type="veh_passenger" depart="137.52" departLane="best" from="77966989#3" to="77881950"/>
    <trip id="veh100" type="veh_passenger" depart="138.91" departLane="best" from="1075088223" to="993806096#0"/>
    <trip id="veh101" type="veh_passenger" depart="140.30" departLane="best" from="-78175834#0" to="-993808282#2"/>
    <trip id="veh103" type="veh_passenger" depart="143.07" departLane="best" from="-681780538#1" to="77967855#0"/>
    <trip id="veh104" type="veh_passenger" depart="144.46" departLane="best" from="78175977" to="202769064#2"/>
    <trip id="veh105" type="veh_passenger" depart="145.85" departLane="best" from="1192632317#0" to="719110259#1"/>
    <trip id="veh106" type="veh_passenger" depart="147.24" departLane="best" from="1104951618#2" to="77967860#2"/>
    <trip id="veh107" type="veh_passenger" depart="148.63" departLane="best" from="-681780543#1" to="78175908#0"/>
    <trip id="veh108" type="veh_passenger" depart="150.02" departLane="best" from="-1236240027#0" to="-708400349"/>
    <trip id="veh110" type="veh_passenger" depart="152.80" departLane="best" from="-752113579" to="371865894#3"/>
    <trip id="veh111" type="veh_passenger" depart="154.19" departLane="best" from="78164604#1" to="-77966521#4"/>
    <trip id="veh112" type="veh_passenger" depart="155.58" departLane="best" from="-251325052#6" to="370164614#2"/>
    <trip id="veh113" type="veh_passenger" depart="156.96" departLane="best" from="-78176009" to="244052111#12"/>
    <trip id="veh114" type="veh_passenger" depart="158.35" departLane="best" from="1132276356#2" to="78175771"/>
    <trip id="veh115" type="veh_passenger" depart="159.74" departLane="best" from="-752113585#1" to="-78175833#0"/>
    <trip id="veh116" type="veh_passenger" depart="161.13" departLane="best" from="-1038630351#1" to="77968324#2"/>
    <trip id="veh117" type="veh_passenger" depart="162.52" departLane="best" from="-77975436#2" to="-721511489#0"/>
    <trip id="veh118" type="veh_passenger" depart="163.91" departLane="best" from="-1206099232" to="1075453088"/>
    <trip id="veh119" type="veh_passenger" depart="165.30" departLane="best" from="-993814689" to="993808287#0"/>
    <trip id="veh120" type="veh_passenger" depart="166.69" departLane="best" from="-1206101488#1" to="715749286"/>
    <trip id="veh121" type="veh_passenger" depart="168.08" departLane="best" from="77966989#3" to="78175768#1"/>
    <trip id="veh122" type="veh_passenger" depart="169.47" departLane="best" from="-78164573#0" to="78164565#4"/>
    <trip id="veh123" type="veh_passenger" depart="170.86" departLane="best" from="-78175751#0" to="681780543#4"/>
    <trip id="veh124" type="veh_passenger" depart="172.24" departLane="best" from="-77967019#0" to="708414239#5"/>
    <trip id="veh125" type="veh_passenger" depart="173.63" departLane="best" from="31756736#5" to="993806099"/>
    <trip id="veh126" type="veh_passenger" depart="175.02" departLane="best" from="-661722871#2" to="-1056033424#0"/>
    <trip id="veh127" type="veh_passenger" depart="176.41" departLane="best" from="77966989#2" to="-77967861#2"/>
    <trip id="veh128" type="veh_passenger" depart="177.80" departLane="best" from="-661722876#9" to="78175785#1"/>
    <trip id="veh129" type="veh_passenger" depart="179.19" departLane="best" from="-387905506#5" to="370164621#4"/>
    <trip id="veh130" type="veh_passenger" depart="180.58" departLane="best" from="-370164612#2" to="1205204801#1"/>
    <trip id="veh131" type="veh_passenger" depart="181.97" departLane="best" from="-77967004#3" to="292622188#4"/>
    <trip id="veh132" type="veh_passenger" depart="183.36" departLane="best" from="371865895#4" to="-77966989#2"/>
    <trip id="veh133" type="veh_passenger" depart="184.75" departLane="best" from="-77967820#7" to="251324935#1"/>
    <trip id="veh134" type="veh_passenger" depart="186.13" departLane="best" from="1040476030#1" to="77629887#1"/>
    <trip id="veh135" type="veh_passenger" depart="187.52" departLane="best" from="-371865900#1" to="-77966987#1"/>
    <trip id="veh136" type="veh_passenger" depart="188.91" departLane="best" from="-717034289#0" to="1205201347#1"/>
    <trip id="veh137" type="veh_passenger" depart="190.30" departLane="best" from="-993808255#0" to="-1066016601#0"/>
    <trip id="veh138" type="veh_passenger" depart="191.69" departLane="best" from="-1236220626" to="78164579#3"/>
    <trip id="veh139" type="veh_passenger" depart="193.08" departLane="best" from="78164692#0" to="1202732350"/>
    <trip id="veh140" type="veh_passenger" depart="194.47" departLane="best" from="77967019#11" to="244052111#10"/>
    <trip id="veh141" type="veh_passenger" depart="195.86" departLane="best" from="-661722876#13" to="-371867581"/>
    <trip id="veh142" type="veh_passenger" depart="197.25" departLane="best" from="77968350#1" to="78164671#0"/>
    <trip id="veh143" type="veh_passenger" depart="198.64" departLane="best" from="77966521#6" to="-77968349#0"/>
    <trip id="veh144" type="veh_passenger" depart="200.03" departLane="best" from="-78164673#0" to="-715638054#7"/>
    <trip id="veh145" type="veh_passenger" depart="201.41" departLane="best" from="77966525#0" to="369828808#1"/>
    <trip id="veh146" type="veh_passenger" depart="202.80" departLane="best" from="77759986#9" to="78164579#7"/>
    <trip id="veh148" type="veh_passenger" depart="205.58" departLane="best" from="681780538#0" to="78175755#1"/>
    <trip id="veh150" type="veh_passenger" depart="208.36" departLane="best" from="1075644989#2" to="717029723#1"/>
    <trip id="veh151" type="veh_passenger" depart="209.75" departLane="best" from="-78164600#3" to="78175755#4"/>
    <trip id="veh152" type="veh_passenger" depart="211.14" departLane="best" from="77966540#1" to="77975300#0"/>
    <trip id="veh154" type="veh_passenger" depart="213.92" departLane="best" departSpeed="max" from="77882055#0" to="370164613#5"/>
    <trip id="veh155" type="veh_passenger" depart="215.31" departLane="best" from="77975436#7" to="-77968340#1"/>
    <trip id="veh156" type="veh_passenger" depart="216.69" departLane="best" from="717029727#3" to="-77966987#1"/>
    <trip id="veh157" type="veh_passenger" depart="218.08" departLane="best" from="1075255931#0" to="77968348#0"/>
    <trip id="veh158" type="veh_passenger" depart="219.47" departLane="best" from="77966521#3" to="718992239#2"/>
    <trip id="veh159" type="veh_passenger" depart="220.86" departLane="best" from="-1075644988#6" to="-708429184"/>
    <trip id="veh160" type="veh_passenger" depart="222.25" departLane="best" from="78164579#9" to="-77975300#1"/>
    <trip id="veh161" type="veh_passenger" depart="223.64" departLane="best" from="78175948#2" to="-77967017#4"/>
    <trip id="veh162" type="veh_passenger" depart="225.03" departLane="best" from="-379021079#2" to="-78175845#2"/>
    <trip id="veh163" type="veh_passenger" depart="226.42" departLane="best" from="-78176022" to="-1186663569#3"/>
    <trip id="veh164" type="veh_passenger" depart="227.81" departLane="best" from="78175785#3" to="370164621#4"/>
    <trip id="veh165" type="veh_passenger" depart="229.20" departLane="best" from="-78175983#0" to="-707631408#3"/>
    <trip id="veh166" type="veh_passenger" depart="230.58" departLane="best" from="78175914#2" to="-77966994"/>
    <trip id="veh167" type="veh_passenger" depart="231.97" departLane="best" from="-370164613#4" to="-993813841#1"/>
    <trip id="veh168" type="veh_passenger" depart="233.36" departLane="best" from="715638054#7" to="-77975435#0"/>
    <trip id="veh169" type="veh_passenger" depart="234.75" departLane="best" from="292622188#5" to="1121175668"/>
    <trip id="veh170" type="veh_passenger" depart="236.14" departLane="best" from="-78175798#1" to="164040613#8"/>
    <trip id="veh171" type="veh_passenger" depart="237.53" departLane="best" from="-77966540#3" to="708429185#4"/>
    <trip id="veh172" type="veh_passenger" depart="238.92" departLane="best" from="-1038630351#0" to="-78175749#3"/>
    <trip id="veh173" type="veh_passenger" depart="240.31" departLane="best" from="-1187562634#3" to="709852433#1"/>
    <trip id="veh174" type="veh_passenger" depart="241.70" departLane="best" from="717046706" to="-681780545#2"/>
    <trip id="veh175" type="veh_passenger" depart="243.09" departLane="best" from="-78164734#2" to="-1205196208#2"/>
    <trip id="veh176" type="veh_passenger" depart="244.48" departLane="best" from="-681780282#2" to="-78164600#1"/>
    <trip id="veh177" type="veh_passenger" depart="245.86" departLane="best" from="-77975342#1" to="-77967830#0"/>
    <trip id="veh178" type="veh_passenger" depart="247.25" departLane="best" from="709852433#0" to="77968325#2"/>
    <trip id="veh179" type="veh_passenger" depart="248.64" departLane="best" from="-77975280#1" to="-78175980#0"/>
    <trip id="veh180" type="veh_passenger" depart="250.03" departLane="best" from="78175910#1" to="77967850#1"/>
    <trip id="veh181" type="veh_passenger" depart="251.42" departLane="best" from="-371867572#0" to="-993806089#3"/>
    <trip id="veh182" type="veh_passenger" depart="252.81" departLane="best" from="78175785#8" to="685108379#1"/>
    <trip id="veh183" type="veh_passenger" depart="254.20" departLane="best" from="78164688#0" to="370164609#6"/>
    <trip id="veh184" type="veh_passenger" depart="255.59" departLane="best" from="-77968324#1" to="1202732729#1"/>
    <trip id="veh185" type="veh_passenger" depart="256.98" departLane="best" from="-1038630344#1" to="-77967768"/>
    <trip id="veh186" type="veh_passenger" depart="258.37" departLane="best" from="-993808262#1" to="202769064#5"/>
    <trip id="veh187" type="veh_passenger" depart="259.76" departLane="best" from="661722872#0" to="1075644989#4"/>
    <trip id="veh188" type="veh_passenger" depart="261.14" departLane="best" from="1040476028#2" to="715749288"/>
    <trip id="veh189" type="veh_passenger" depart="262.53" departLane="best" from="1075649231#3" to="-78164681"/>
    <trip id="veh190" type="veh_passenger" depart="263.92" departLane="best" from="77966521#6" to="-706282597#7"/>
    <trip id="veh191" type="veh_passenger" depart="265.31" departLane="best" from="-1238483553" to="1121179243"/>
    <trip id="veh192" type="veh_passenger" depart="266.70" departLane="best" from="371865894#4" to="-78164611#1"/>
    <trip id="veh193" type="veh_passenger" depart="268.09" departLane="best" from="77966992" to="-721511487#0"/>
    <trip id="veh194" type="veh_passenger" depart="269.48" departLane="best" from="681780545#0" to="-717447903#0"/>
    <trip id="veh195" type="veh_passenger" depart="270.87" departLane="best" from="-708713878#0" to="1075644989#1"/>
    <trip id="veh196" type="veh_passenger" depart="272.26" departLane="best" from="775979376#4" to="1075991600"/>
    <trip id="veh197" type="veh_passenger" depart="273.65" departLane="best" from="-77967850#1" to="-1206101488#0"/>
    <trip id="veh198" type="veh_passenger" depart="275.03" departLane="best" from="-78175994#1" to="371865894#1"/>
    <trip id="veh199" type="veh_passenger" depart="276.42" departLane="best" from="-708429185#1" to="707860015#1"/>
    <trip id="veh200" type="veh_passenger" depart="277.81" departLane="best" from="1102536810#0" to="-775979376#4"/>
    <trip id="veh201" type="veh_passenger" depart="279.20" departLane="best" from="661722872#5" to="1042112405#0"/>
    <trip id="veh202" type="veh_passenger" depart="280.59" departLane="best" from="-719318918#0" to="77629881#9"/>
    <trip id="veh203" type="veh_passenger" depart="281.98" departLane="best" from="-370164612#0" to="-993807259#2"/>
    <trip id="veh204" type="veh_passenger" depart="283.37" departLane="best" from="707597750#1" to="78175834#2"/>
    <trip id="veh205" type="veh_passenger" depart="284.76" departLane="best" from="1121179249" to="-1121182194"/>
    <trip id="veh206" type="veh_passenger" depart="286.15" departLane="best" from="-77966522#1" to="77967830#1"/>
    <trip id="veh207" type="veh_passenger" depart="287.54" departLane="best" from="1075244590#0" to="77966545#0"/>
    <trip id="veh208" type="veh_passenger" depart="288.93" departLane="best" from="-681780538#1" to="-993807259#1"/>
    <trip id="veh209" type="veh_passenger" depart="290.31" departLane="best" from="251325073#2" to="78175813#2"/>
    <trip id="veh210" type="veh_passenger" depart="291.70" departLane="best" from="78164604#7" to="369828807#2"/>
    <trip id="veh211" type="veh_passenger" depart="293.09" departLane="best" from="709631158#0" to="1115514311#4"/>
    <trip id="veh212" type="veh_passenger" depart="294.48" departLane="best" from="77967014#7" to="1202732729#1"/>
    <trip id="veh213" type="veh_passenger" depart="295.87" departLane="best" from="78164669#1" to="718264678"/>
    <trip id="veh214" type="veh_passenger" depart="297.26" departLane="best" from="1075649232#6" to="-77966571#2"/>
    <trip id="veh215" type="veh_passenger" depart="298.65" departLane="best" from="77966521#4" to="371867581"/>
    <trip id="veh216" type="veh_passenger" depart="300.04" departLane="best" from="77629881#1-AddedOffRampEdge" to="1132276356#0"/>
    <trip id="veh217" type="veh_passenger" depart="301.43" departLane="best" from="-370164620#8" to="-77967013#6"/>
    <trip id="veh218" type="veh_passenger" depart="302.82" departLane="best" from="-1236235411#0" to="-77967757#1"/>
    <trip id="veh219" type="veh_passenger" depart="304.21" departLane="best" from="77967004#0" to="-78164556#1"/>
    <trip id="veh220" type="veh_passenger" depart="305.59" departLane="best" from="1190108234" to="-602915253#3"/>
    <trip id="veh221" type="veh_passenger" depart="306.98" departLane="best" from="708414242#0" to="1187564051"/>
    <trip id="veh222" type="veh_passenger" depart="308.37" departLane="best" from="78175948#2" to="1192632317#0"/>
    <trip id="veh223" type="veh_passenger" depart="309.76" departLane="best" from="-78175996#2" to="-715638053#5"/>
    <trip id="veh224" type="veh_passenger" depart="311.15" departLane="best" from="-814271008#0" to="78164693#0"/>
    <trip id="veh225" type="veh_passenger" depart="312.54" departLane="best" departSpeed="max" from="244052111#0" to="-707631415#2"/>
    <trip id="veh226" type="veh_passenger" depart="313.93" departLane="best" from="77968335#1" to="77629881#11"/>
    <trip id="veh227" type="veh_passenger" depart="315.32" departLane="best" from="-78175785#3" to="1042112405#1"/>
    <trip id="veh228" type="veh_passenger" depart="316.71" departLane="best" from="-78164701#1" to="752113580#3"/>
    <trip id="veh229" type="veh_passenger" depart="318.10" departLane="best" from="-77968324#1" to="78175829#10"/>
    <trip id="veh230" type="veh_passenger" depart="319.49" departLane="best" from="78176003#1" to="719110258"/>
    <trip id="veh231" type="veh_passenger" depart="320.87" departLane="best" from="993808287#2" to="-1076002359#0"/>
    <trip id="veh232" type="veh_passenger" depart="322.26" departLane="best" from="78164604#7" to="705420807"/>
    <trip id="veh233" type="veh_passenger" depart="323.65" departLane="best" from="-78175914#5" to="-685108379#1"/>
    <trip id="veh234" type="veh_passenger" depart="325.04" departLane="best" from="1075644989#0" to="-371867582"/>
    <trip id="veh235" type="veh_passenger" depart="326.43" departLane="best" from="370164614#4" to="1075991600"/>
    <trip id="veh236" type="veh_passenger" depart="327.82" departLane="best" from="-78175829#11" to="1236239386"/>
    <trip id="veh237" type="veh_passenger" depart="329.21" departLane="best" from="-1075991600" to="-387905505#4"/>
    <trip id="veh238" type="veh_passenger" depart="330.60" departLane="best" from="-760477512" to="1075644987#3"/>
    <trip id="veh239" type="veh_passenger" depart="331.99" departLane="best" from="1121182194" to="-78175785#4"/>
    <trip id="veh240" type="veh_passenger" depart="333.38" departLane="best" from="-715739905" to="78164579#8"/>
    <trip id="veh241" type="veh_passenger" depart="334.76" departLane="best" from="-775978272" to="78175785#4"/>
    <trip id="veh242" type="veh_passenger" depart="336.15" departLane="best" from="720137808#1" to="-77967015#0"/>
    <trip id="veh243" type="veh_passenger" depart="337.54" departLane="best" from="77966571#8" to="-1238475049"/>
    <trip id="veh244" type="veh_passenger" depart="338.93" departLane="best" from="-1075457095" to="1187564051"/>
    <trip id="veh245" type="veh_passenger" depart="340.32" departLane="best" from="-993819589" to="-78164700#2"/>